Version 4
SHEET 1 1296 680
WIRE 160 -64 96 -64
WIRE 368 -64 240 -64
WIRE 528 -64 368 -64
WIRE 656 -64 592 -64
WIRE 720 -64 656 -64
WIRE 96 -32 96 -64
WIRE 656 -16 656 -64
WIRE 720 -16 720 -64
WIRE 320 16 240 16
WIRE 240 32 240 16
WIRE 368 32 368 -64
WIRE 320 48 320 16
WIRE 96 112 96 48
WIRE 240 112 96 112
WIRE 320 112 320 96
WIRE 320 112 240 112
WIRE 368 112 320 112
WIRE 656 112 656 48
WIRE 656 112 368 112
WIRE 720 112 720 64
WIRE 720 112 656 112
WIRE 96 128 96 112
FLAG 96 128 0
SYMBOL voltage 96 -48 R0
WINDOW 3 -102 64 Left 2
WINDOW 0 -77 40 Left 2
SYMATTR Value 180V
SYMATTR InstName V1
SYMBOL voltage 240 16 R0
WINDOW 0 -47 55 Top 2
WINDOW 3 100 138 Bottom 2
WINDOW 123 0 0 Left 2
WINDOW 39 0 0 Left 2
SYMATTR InstName V2
SYMATTR Value PULSE(0 15 0 0.001u 0.001u 6.769u 20u)
SYMBOL ind 144 -48 R270
WINDOW 0 66 57 VTop 2
WINDOW 3 64 56 VBottom 2
SYMATTR InstName L1
SYMATTR Value 877.3µ
SYMBOL cap 640 -16 R0
WINDOW 0 -12 28 Right 2
WINDOW 3 -4 53 Right 2
SYMATTR InstName C1
SYMATTR Value 1.107µ
SYMBOL res 704 -32 R0
WINDOW 0 37 44 Left 2
SYMATTR InstName R1
SYMATTR Value 973.44
SYMBOL diode 528 -48 R270
WINDOW 0 65 26 VTop 2
WINDOW 3 62 25 VBottom 2
SYMATTR InstName D1
SYMATTR Value MeuDiodo
SYMBOL sw 368 128 M180
WINDOW 0 42 77 Left 2
WINDOW 3 40 55 Left 2
SYMATTR InstName S1
SYMATTR Value MinhaChave
SYMBOL nmos 1104 96 R0
SYMATTR InstName M1
SYMATTR Value IRF530
TEXT 112 264 Left 2 !.tran 0 10.5ms 10ms 1e-8
TEXT 112 232 Left 2 !.model MeuDiodo D(Vfwd=0 Ron=0.0001 Roff=99Meg)
TEXT 88 -224 Left 2 ;UTFPR-PB\nProfessor Diogo Vargas
TEXT 112 200 Left 2 !.model MinhaChave SW(Ron=0.0001 Vt=0 Vh=-0.5 Lser=0 Vser=0)
