Version 4
SHEET 1 3992 680
WIRE 1056 -432 976 -432
WIRE 1168 -432 1136 -432
WIRE 1360 -432 1168 -432
WIRE 1408 -432 1360 -432
WIRE 1536 -432 1488 -432
WIRE 1600 -432 1536 -432
WIRE 2064 -432 2048 -432
WIRE 2224 -432 2160 -432
WIRE 2432 -432 2224 -432
WIRE 2528 -432 2432 -432
WIRE 2624 -432 2608 -432
WIRE 2752 -432 2704 -432
WIRE 2848 -432 2752 -432
WIRE 2752 -416 2752 -432
WIRE 1360 -400 1360 -432
WIRE 2432 -400 2432 -432
WIRE 1168 -384 1168 -432
WIRE 1168 -384 1120 -384
WIRE 2144 -352 2144 -384
WIRE 2224 -352 2224 -432
WIRE 976 -336 976 -432
WIRE 1072 -336 1072 -384
WIRE 1168 -336 1168 -384
WIRE 1168 -336 1152 -336
WIRE 1600 -336 1600 -432
WIRE 2048 -336 2048 -432
WIRE 2848 -336 2848 -432
WIRE 1536 -320 1536 -432
WIRE 2752 -320 2752 -336
WIRE 1360 -256 1360 -336
WIRE 1360 -256 976 -256
WIRE 1536 -256 1360 -256
WIRE 1600 -256 1536 -256
WIRE 2432 -256 2432 -336
WIRE 2432 -256 2048 -256
WIRE 2752 -256 2432 -256
WIRE 2848 -256 2752 -256
WIRE 976 -240 976 -256
WIRE 2048 -240 2048 -256
FLAG 2048 -240 0
FLAG 976 -240 0
SYMBOL voltage 2048 -352 R0
WINDOW 3 -83 68 Left 2
WINDOW 0 -69 40 Left 2
WINDOW 123 0 0 Left 0
WINDOW 39 0 0 Left 0
SYMATTR Value 100V
SYMATTR InstName V2
SYMBOL voltage 2128 -352 R270
WINDOW 0 32 56 VTop 2
WINDOW 3 -32 154 VBottom 2
WINDOW 123 0 0 Left 2
WINDOW 39 0 0 Left 2
SYMATTR InstName V4
SYMATTR Value PULSE(0 15 0 1n 1n 5u 10u)
SYMBOL nmos 2064 -384 R270
WINDOW 0 87 -1 VRight 2
WINDOW 3 63 -2 VRight 2
SYMATTR InstName S2
SYMATTR Value IRF740
SYMBOL ind 2608 -416 R270
WINDOW 0 83 50 VTop 2
WINDOW 3 63 56 VBottom 2
SYMATTR InstName L2
SYMATTR Value 6.720mH
SYMBOL cap 2736 -320 R0
WINDOW 0 -36 -14 Left 2
WINDOW 3 -50 17 Left 2
SYMATTR InstName C2
SYMATTR Value 47µ
SYMBOL res 2832 -352 R0
SYMATTR InstName R2
SYMATTR Value 10
SYMBOL diode 2448 -336 R180
WINDOW 0 -40 29 Left 2
WINDOW 3 -88 2 Left 2
SYMATTR InstName D2
SYMATTR Value MUR160
SYMBOL voltage 976 -352 R0
WINDOW 3 -83 68 Left 2
WINDOW 0 -69 40 Left 2
WINDOW 123 0 0 Left 0
WINDOW 39 0 0 Left 0
SYMATTR Value 100V
SYMATTR InstName V1
SYMBOL voltage 1056 -336 R270
WINDOW 0 32 56 VTop 2
WINDOW 3 -32 154 VBottom 2
WINDOW 123 0 0 Left 2
WINDOW 39 0 0 Left 2
SYMATTR InstName V3
SYMATTR Value PULSE(0 15 0 1n 1n 5u 10u)
SYMBOL ind 1392 -416 R270
WINDOW 0 32 56 VTop 2
WINDOW 3 5 56 VBottom 2
SYMATTR InstName L1
SYMATTR Value 6.720mH
SYMBOL cap 1520 -320 R0
WINDOW 0 -36 -14 Left 2
WINDOW 3 -50 17 Left 2
SYMATTR InstName C1
SYMATTR Value 47µ
SYMBOL res 1584 -352 R0
SYMATTR InstName R1
SYMATTR Value 10
SYMBOL diode 1376 -336 R180
WINDOW 0 -26 61 Left 2
WINDOW 3 -112 36 Left 2
SYMATTR InstName D1
SYMATTR Value MeuDiodo
SYMBOL sw 1152 -432 M270
WINDOW 0 78 69 VLeft 2
WINDOW 3 51 67 VLeft 2
SYMATTR InstName S1
SYMATTR Value MinhaChave
SYMBOL res 2736 -432 R0
SYMATTR InstName R3
SYMATTR Value 0.461
SYMBOL res 2624 -448 R90
WINDOW 0 -44 70 VBottom 2
WINDOW 3 -24 77 VTop 2
SYMATTR InstName R4
SYMATTR Value 0.9
TEXT 960 72 Left 2 !.tran 0 12ms 10ms 1e-8
TEXT 2080 72 Left 2 !.model MUR1560 D\n+IS=1.22946e-07 RS=0.0276435 N=2 EG=1.3 XTI=4 BV=600 IBV=0.00001\n+CJO=5.43205e-10 VJ=0.4 M=0.373483 FC=0.5 TT=7.14134e-08 KF=0 AF=1
TEXT 976 -664 Left 2 ;Professor Diogo Vargas\nUTFPR Pato Branco\nVisite: https://github.com/EngVargas\nE: https://www.youtube.com/c/ProfessorVargas
TEXT 960 -184 Left 2 !.model MeuDiodo D(Vfwd=0 Ron=1u Roff=99Meg Vrev=1000)
TEXT 960 -152 Left 2 !.model MinhaChave SW(Ron=1u Roff=99Meg Vt=0.2 Vh=0.1 Lser=0 Vser=0)
TEXT 968 -104 Left 2 ;Informações do modelo da chave SW:\nhttps://www.analog.com/en/technical-articles/ltspiceiv-voltage-controlled-switches.html
TEXT 968 -40 Left 2 ;Informações do modelo de diodo:\nhttps://www.analog.com/en/technical-articles/ltspice-simple-idealized-diode.html
TEXT 2080 -192 Left 2 !.model IRF740 NMOS(Level=3 Gamma=0 Delta=0 Eta=0 Theta=0 Kappa=0.2 Vmax=0 Xj=0\n+ Tox=100n Uo=600 Phi=.6 Rs=8.563m Kp=20.59u W=.78 L=2u Vto=3.657\n+ Rd=.3915 Rds=1.778MEG Cbd=1.419n Pb=.8 Mj=.5 Fc=.5 Cgso=1.392n\n+ Cgdo=146.6p Rg=.9088 Is=17.65p N=1 Tt=570n)
TEXT 2080 -72 Left 2 !.model MUR160 D\n+IS=2.09761e-09 RS=0.102264 N=1.73768 EG=1.30748\n+XTI=0.5 BV=600 IBV=5e-06 CJO=2.04093e-11\n+VJ=1.5 M=0.660816 FC=0.5 TT=1.04325e-07\n+KF=0 AF=1
